[root]
type=Root
children=system
eventq_index=0
full_system=false
sim_quantum=0
time_sync_enable=false
time_sync_period=200000000
time_sync_spin_threshold=200000

[system]
type=System
children=clk_domain cpu dvfs_handler mem_ctrls0 mem_ctrls1 mem_ctrls2 mem_ctrls3 redirect_paths0 redirect_paths1 redirect_paths2 ruby sys_port_proxy voltage_domain
byte_order=little
cache_line_size=64
eventq_index=0
exit_on_work_items=false
init_param=0
kvm_vm=Null
m5ops_base=4294901760
mem_mode=timing
mem_ranges=0:536870912
memories=system.mem_ctrls0.dram system.mem_ctrls1.dram system.mem_ctrls2.dram system.mem_ctrls3.dram
mmap_using_noreserve=false
multi_thread=false
num_work_ids=16
readfile=
redirect_paths=system.redirect_paths0 system.redirect_paths1 system.redirect_paths2
shadow_rom_ranges=
shared_backstore=
symbolfile=
thermal_components=
thermal_model=Null
work_begin_ckpt_count=0
work_begin_cpu_id_exit=-1
work_begin_exit_count=0
work_cpus_ckpt_count=0
work_end_ckpt_count=0
work_end_exit_count=0
work_item_id=-1
workload=Null
system_port=system.sys_port_proxy.in_ports[0]

[system.clk_domain]
type=SrcClockDomain
clock=2
domain_id=-1
eventq_index=0
init_perf_level=0
voltage_domain=system.voltage_domain

[system.cpu]
type=RubyTester
children=power_state
check_flush=false
checks_to_complete=10
clk_domain=system.clk_domain
deadlock_threshold=50000
eventq_index=0
num_cpus=4
power_model=
power_state=system.cpu.power_state
system=system
wakeup_frequency=10
cpuInstDataPort=system.ruby.l1_cntrl0.sequencer.in_ports[0] system.ruby.l1_cntrl1.sequencer.in_ports[0] system.ruby.l1_cntrl2.sequencer.in_ports[0] system.ruby.l1_cntrl3.sequencer.in_ports[0]

[system.cpu.power_state]
type=PowerState
clk_gate_bins=20
clk_gate_max=2000000000
clk_gate_min=2
default_state=UNDEFINED
eventq_index=0
leaders=
possible_states=

[system.dvfs_handler]
type=DVFSHandler
domains=
enable=false
eventq_index=0
sys_clk_domain=system.clk_domain
transition_latency=200000

[system.mem_ctrls0]
type=MemCtrl
children=dram power_state
clk_domain=system.clk_domain
command_window=20
dram=system.mem_ctrls0.dram
eventq_index=0
mem_sched_policy=frfcfs
min_writes_per_switch=16
nvm=Null
power_model=
power_state=system.mem_ctrls0.power_state
qos_policy=Null
qos_priorities=1
qos_priority_escalation=false
qos_q_policy=fifo
qos_requestors=               
qos_syncro_scheduler=false
qos_turnaround_policy=Null
static_backend_latency=20
static_frontend_latency=20
system=system
write_high_thresh_perc=85
write_low_thresh_perc=50
port=system.ruby.dir_cntrl0.memory_out_port

[system.mem_ctrls0.dram]
type=DRAMInterface
children=power_state
IDD0=0.055
IDD02=0.0
IDD2N=0.032
IDD2N2=0.0
IDD2P0=0.0
IDD2P02=0.0
IDD2P1=0.032
IDD2P12=0.0
IDD3N=0.038
IDD3N2=0.0
IDD3P0=0.0
IDD3P02=0.0
IDD3P1=0.038
IDD3P12=0.0
IDD4R=0.157
IDD4R2=0.0
IDD4W=0.125
IDD4W2=0.0
IDD5=0.23500000000000001
IDD52=0.0
IDD6=0.02
IDD62=0.0
VDD=1.5
VDD2=0.0
activation_limit=4
addr_mapping=RoRaBaCoCh
bank_groups_per_rank=0
banks_per_rank=8
beats_per_clock=2
burst_length=8
clk_domain=system.clk_domain
conf_table_reported=true
data_clock_sync=false
device_bus_width=8
device_rowbuffer_size=1024
device_size=536870912
devices_per_rank=8
dll=true
enable_dram_powerdown=false
eventq_index=0
image_file=
in_addr_map=true
kvm_map=true
max_accesses_per_row=16
null=false
page_policy=open_adaptive
power_model=
power_state=system.mem_ctrls0.dram.power_state
range=0:536870912:0:1048640:2097280
ranks_per_channel=2
read_buffer_size=32
tAAD=3
tBURST=10
tBURST_MAX=10
tBURST_MIN=10
tCCD_L=0
tCCD_L_WR=0
tCK=3
tCL=28
tCS=5
tPPD=0
tRAS=70
tRCD=28
tREFI=15600
tRFC=520
tRP=28
tRRD=12
tRRD_L=0
tRTP=15
tRTW=5
tWR=30
tWTR=15
tWTR_L=15
tXAW=60
tXP=12
tXPDLL=0
tXS=540
tXSDLL=0
two_cycle_activate=false
write_buffer_size=64

[system.mem_ctrls0.dram.power_state]
type=PowerState
clk_gate_bins=20
clk_gate_max=2000000000
clk_gate_min=2
default_state=UNDEFINED
eventq_index=0
leaders=
possible_states=

[system.mem_ctrls0.power_state]
type=PowerState
clk_gate_bins=20
clk_gate_max=2000000000
clk_gate_min=2
default_state=UNDEFINED
eventq_index=0
leaders=
possible_states=

[system.mem_ctrls1]
type=MemCtrl
children=dram power_state
clk_domain=system.clk_domain
command_window=20
dram=system.mem_ctrls1.dram
eventq_index=0
mem_sched_policy=frfcfs
min_writes_per_switch=16
nvm=Null
power_model=
power_state=system.mem_ctrls1.power_state
qos_policy=Null
qos_priorities=1
qos_priority_escalation=false
qos_q_policy=fifo
qos_requestors=               
qos_syncro_scheduler=false
qos_turnaround_policy=Null
static_backend_latency=20
static_frontend_latency=20
system=system
write_high_thresh_perc=85
write_low_thresh_perc=50
port=system.ruby.dir_cntrl1.memory_out_port

[system.mem_ctrls1.dram]
type=DRAMInterface
children=power_state
IDD0=0.055
IDD02=0.0
IDD2N=0.032
IDD2N2=0.0
IDD2P0=0.0
IDD2P02=0.0
IDD2P1=0.032
IDD2P12=0.0
IDD3N=0.038
IDD3N2=0.0
IDD3P0=0.0
IDD3P02=0.0
IDD3P1=0.038
IDD3P12=0.0
IDD4R=0.157
IDD4R2=0.0
IDD4W=0.125
IDD4W2=0.0
IDD5=0.23500000000000001
IDD52=0.0
IDD6=0.02
IDD62=0.0
VDD=1.5
VDD2=0.0
activation_limit=4
addr_mapping=RoRaBaCoCh
bank_groups_per_rank=0
banks_per_rank=8
beats_per_clock=2
burst_length=8
clk_domain=system.clk_domain
conf_table_reported=true
data_clock_sync=false
device_bus_width=8
device_rowbuffer_size=1024
device_size=536870912
devices_per_rank=8
dll=true
enable_dram_powerdown=false
eventq_index=0
image_file=
in_addr_map=true
kvm_map=true
max_accesses_per_row=16
null=false
page_policy=open_adaptive
power_model=
power_state=system.mem_ctrls1.dram.power_state
range=0:536870912:1:1048640:2097280
ranks_per_channel=2
read_buffer_size=32
tAAD=3
tBURST=10
tBURST_MAX=10
tBURST_MIN=10
tCCD_L=0
tCCD_L_WR=0
tCK=3
tCL=28
tCS=5
tPPD=0
tRAS=70
tRCD=28
tREFI=15600
tRFC=520
tRP=28
tRRD=12
tRRD_L=0
tRTP=15
tRTW=5
tWR=30
tWTR=15
tWTR_L=15
tXAW=60
tXP=12
tXPDLL=0
tXS=540
tXSDLL=0
two_cycle_activate=false
write_buffer_size=64

[system.mem_ctrls1.dram.power_state]
type=PowerState
clk_gate_bins=20
clk_gate_max=2000000000
clk_gate_min=2
default_state=UNDEFINED
eventq_index=0
leaders=
possible_states=

[system.mem_ctrls1.power_state]
type=PowerState
clk_gate_bins=20
clk_gate_max=2000000000
clk_gate_min=2
default_state=UNDEFINED
eventq_index=0
leaders=
possible_states=

[system.mem_ctrls2]
type=MemCtrl
children=dram power_state
clk_domain=system.clk_domain
command_window=20
dram=system.mem_ctrls2.dram
eventq_index=0
mem_sched_policy=frfcfs
min_writes_per_switch=16
nvm=Null
power_model=
power_state=system.mem_ctrls2.power_state
qos_policy=Null
qos_priorities=1
qos_priority_escalation=false
qos_q_policy=fifo
qos_requestors=               
qos_syncro_scheduler=false
qos_turnaround_policy=Null
static_backend_latency=20
static_frontend_latency=20
system=system
write_high_thresh_perc=85
write_low_thresh_perc=50
port=system.ruby.dir_cntrl2.memory_out_port

[system.mem_ctrls2.dram]
type=DRAMInterface
children=power_state
IDD0=0.055
IDD02=0.0
IDD2N=0.032
IDD2N2=0.0
IDD2P0=0.0
IDD2P02=0.0
IDD2P1=0.032
IDD2P12=0.0
IDD3N=0.038
IDD3N2=0.0
IDD3P0=0.0
IDD3P02=0.0
IDD3P1=0.038
IDD3P12=0.0
IDD4R=0.157
IDD4R2=0.0
IDD4W=0.125
IDD4W2=0.0
IDD5=0.23500000000000001
IDD52=0.0
IDD6=0.02
IDD62=0.0
VDD=1.5
VDD2=0.0
activation_limit=4
addr_mapping=RoRaBaCoCh
bank_groups_per_rank=0
banks_per_rank=8
beats_per_clock=2
burst_length=8
clk_domain=system.clk_domain
conf_table_reported=true
data_clock_sync=false
device_bus_width=8
device_rowbuffer_size=1024
device_size=536870912
devices_per_rank=8
dll=true
enable_dram_powerdown=false
eventq_index=0
image_file=
in_addr_map=true
kvm_map=true
max_accesses_per_row=16
null=false
page_policy=open_adaptive
power_model=
power_state=system.mem_ctrls2.dram.power_state
range=0:536870912:2:1048640:2097280
ranks_per_channel=2
read_buffer_size=32
tAAD=3
tBURST=10
tBURST_MAX=10
tBURST_MIN=10
tCCD_L=0
tCCD_L_WR=0
tCK=3
tCL=28
tCS=5
tPPD=0
tRAS=70
tRCD=28
tREFI=15600
tRFC=520
tRP=28
tRRD=12
tRRD_L=0
tRTP=15
tRTW=5
tWR=30
tWTR=15
tWTR_L=15
tXAW=60
tXP=12
tXPDLL=0
tXS=540
tXSDLL=0
two_cycle_activate=false
write_buffer_size=64

[system.mem_ctrls2.dram.power_state]
type=PowerState
clk_gate_bins=20
clk_gate_max=2000000000
clk_gate_min=2
default_state=UNDEFINED
eventq_index=0
leaders=
possible_states=

[system.mem_ctrls2.power_state]
type=PowerState
clk_gate_bins=20
clk_gate_max=2000000000
clk_gate_min=2
default_state=UNDEFINED
eventq_index=0
leaders=
possible_states=

[system.mem_ctrls3]
type=MemCtrl
children=dram power_state
clk_domain=system.clk_domain
command_window=20
dram=system.mem_ctrls3.dram
eventq_index=0
mem_sched_policy=frfcfs
min_writes_per_switch=16
nvm=Null
power_model=
power_state=system.mem_ctrls3.power_state
qos_policy=Null
qos_priorities=1
qos_priority_escalation=false
qos_q_policy=fifo
qos_requestors=               
qos_syncro_scheduler=false
qos_turnaround_policy=Null
static_backend_latency=20
static_frontend_latency=20
system=system
write_high_thresh_perc=85
write_low_thresh_perc=50
port=system.ruby.dir_cntrl3.memory_out_port

[system.mem_ctrls3.dram]
type=DRAMInterface
children=power_state
IDD0=0.055
IDD02=0.0
IDD2N=0.032
IDD2N2=0.0
IDD2P0=0.0
IDD2P02=0.0
IDD2P1=0.032
IDD2P12=0.0
IDD3N=0.038
IDD3N2=0.0
IDD3P0=0.0
IDD3P02=0.0
IDD3P1=0.038
IDD3P12=0.0
IDD4R=0.157
IDD4R2=0.0
IDD4W=0.125
IDD4W2=0.0
IDD5=0.23500000000000001
IDD52=0.0
IDD6=0.02
IDD62=0.0
VDD=1.5
VDD2=0.0
activation_limit=4
addr_mapping=RoRaBaCoCh
bank_groups_per_rank=0
banks_per_rank=8
beats_per_clock=2
burst_length=8
clk_domain=system.clk_domain
conf_table_reported=true
data_clock_sync=false
device_bus_width=8
device_rowbuffer_size=1024
device_size=536870912
devices_per_rank=8
dll=true
enable_dram_powerdown=false
eventq_index=0
image_file=
in_addr_map=true
kvm_map=true
max_accesses_per_row=16
null=false
page_policy=open_adaptive
power_model=
power_state=system.mem_ctrls3.dram.power_state
range=0:536870912:3:1048640:2097280
ranks_per_channel=2
read_buffer_size=32
tAAD=3
tBURST=10
tBURST_MAX=10
tBURST_MIN=10
tCCD_L=0
tCCD_L_WR=0
tCK=3
tCL=28
tCS=5
tPPD=0
tRAS=70
tRCD=28
tREFI=15600
tRFC=520
tRP=28
tRRD=12
tRRD_L=0
tRTP=15
tRTW=5
tWR=30
tWTR=15
tWTR_L=15
tXAW=60
tXP=12
tXPDLL=0
tXS=540
tXSDLL=0
two_cycle_activate=false
write_buffer_size=64

[system.mem_ctrls3.dram.power_state]
type=PowerState
clk_gate_bins=20
clk_gate_max=2000000000
clk_gate_min=2
default_state=UNDEFINED
eventq_index=0
leaders=
possible_states=

[system.mem_ctrls3.power_state]
type=PowerState
clk_gate_bins=20
clk_gate_max=2000000000
clk_gate_min=2
default_state=UNDEFINED
eventq_index=0
leaders=
possible_states=

[system.redirect_paths0]
type=RedirectPath
app_path=/proc
eventq_index=0
host_paths=results/fs/proc

[system.redirect_paths1]
type=RedirectPath
app_path=/sys
eventq_index=0
host_paths=results/fs/sys

[system.redirect_paths2]
type=RedirectPath
app_path=/tmp
eventq_index=0
host_paths=results/fs/tmp

[system.ruby]
type=RubySystem
children=clk_domain dir_cntrl0 dir_cntrl1 dir_cntrl2 dir_cntrl3 l1_cntrl0 l1_cntrl1 l1_cntrl2 l1_cntrl3 l2_cntrl0 memctrl_clk_domain network power_state
access_backing_store=false
all_instructions=false
block_size_bytes=64
clk_domain=system.ruby.clk_domain
eventq_index=0
hot_lines=false
memory_size_bits=48
num_of_sequencers=4
number_of_virtual_networks=3
phys_mem=Null
power_model=
power_state=system.ruby.power_state
randomization=true
system=system

[system.ruby.clk_domain]
type=SrcClockDomain
clock=1
domain_id=-1
eventq_index=0
init_perf_level=0
voltage_domain=system.voltage_domain

[system.ruby.dir_cntrl0]
type=Directory_Controller
children=directory power_state requestToDir requestToMemory responseFromDir responseFromMemory responseToDir
addr_ranges=0:536870912:0:1048640:2097280
buffer_size=0
clk_domain=system.ruby.clk_domain
cluster_id=0
directory=system.ruby.dir_cntrl0.directory
directory_latency=6
downstream_destinations=
eventq_index=0
mandatory_queue_latency=1
number_of_TBEs=256
power_model=
power_state=system.ruby.dir_cntrl0.power_state
recycle_latency=10
requestToDir=system.ruby.dir_cntrl0.requestToDir
requestToMemory=system.ruby.dir_cntrl0.requestToMemory
responseFromDir=system.ruby.dir_cntrl0.responseFromDir
responseFromMemory=system.ruby.dir_cntrl0.responseFromMemory
responseToDir=system.ruby.dir_cntrl0.responseToDir
ruby_system=system.ruby
system=system
to_mem_ctrl_latency=1
transitions_per_cycle=32
version=0
memory_out_port=system.mem_ctrls0.port

[system.ruby.dir_cntrl0.directory]
type=RubyDirectoryMemory
addr_ranges=0:536870912:0:1048640:2097280
eventq_index=0

[system.ruby.dir_cntrl0.power_state]
type=PowerState
clk_gate_bins=20
clk_gate_max=2000000000
clk_gate_min=2
default_state=UNDEFINED
eventq_index=0
leaders=
possible_states=

[system.ruby.dir_cntrl0.requestToDir]
type=MessageBuffer
allow_zero_latency=false
buffer_size=0
eventq_index=0
ordered=false
randomization=ruby_system
in_port=system.ruby.network.out_port[11]

[system.ruby.dir_cntrl0.requestToMemory]
type=MessageBuffer
allow_zero_latency=false
buffer_size=0
eventq_index=0
ordered=false
randomization=ruby_system

[system.ruby.dir_cntrl0.responseFromDir]
type=MessageBuffer
allow_zero_latency=false
buffer_size=0
eventq_index=0
ordered=false
randomization=ruby_system
out_port=system.ruby.network.in_port[15]

[system.ruby.dir_cntrl0.responseFromMemory]
type=MessageBuffer
allow_zero_latency=false
buffer_size=0
eventq_index=0
ordered=false
randomization=ruby_system

[system.ruby.dir_cntrl0.responseToDir]
type=MessageBuffer
allow_zero_latency=false
buffer_size=0
eventq_index=0
ordered=false
randomization=ruby_system
in_port=system.ruby.network.out_port[12]

[system.ruby.dir_cntrl1]
type=Directory_Controller
children=directory power_state requestToDir requestToMemory responseFromDir responseFromMemory responseToDir
addr_ranges=0:536870912:1:1048640:2097280
buffer_size=0
clk_domain=system.ruby.clk_domain
cluster_id=0
directory=system.ruby.dir_cntrl1.directory
directory_latency=6
downstream_destinations=
eventq_index=0
mandatory_queue_latency=1
number_of_TBEs=256
power_model=
power_state=system.ruby.dir_cntrl1.power_state
recycle_latency=10
requestToDir=system.ruby.dir_cntrl1.requestToDir
requestToMemory=system.ruby.dir_cntrl1.requestToMemory
responseFromDir=system.ruby.dir_cntrl1.responseFromDir
responseFromMemory=system.ruby.dir_cntrl1.responseFromMemory
responseToDir=system.ruby.dir_cntrl1.responseToDir
ruby_system=system.ruby
system=system
to_mem_ctrl_latency=1
transitions_per_cycle=32
version=1
memory_out_port=system.mem_ctrls1.port

[system.ruby.dir_cntrl1.directory]
type=RubyDirectoryMemory
addr_ranges=0:536870912:1:1048640:2097280
eventq_index=0

[system.ruby.dir_cntrl1.power_state]
type=PowerState
clk_gate_bins=20
clk_gate_max=2000000000
clk_gate_min=2
default_state=UNDEFINED
eventq_index=0
leaders=
possible_states=

[system.ruby.dir_cntrl1.requestToDir]
type=MessageBuffer
allow_zero_latency=false
buffer_size=0
eventq_index=0
ordered=false
randomization=ruby_system
in_port=system.ruby.network.out_port[13]

[system.ruby.dir_cntrl1.requestToMemory]
type=MessageBuffer
allow_zero_latency=false
buffer_size=0
eventq_index=0
ordered=false
randomization=ruby_system

[system.ruby.dir_cntrl1.responseFromDir]
type=MessageBuffer
allow_zero_latency=false
buffer_size=0
eventq_index=0
ordered=false
randomization=ruby_system
out_port=system.ruby.network.in_port[16]

[system.ruby.dir_cntrl1.responseFromMemory]
type=MessageBuffer
allow_zero_latency=false
buffer_size=0
eventq_index=0
ordered=false
randomization=ruby_system

[system.ruby.dir_cntrl1.responseToDir]
type=MessageBuffer
allow_zero_latency=false
buffer_size=0
eventq_index=0
ordered=false
randomization=ruby_system
in_port=system.ruby.network.out_port[14]

[system.ruby.dir_cntrl2]
type=Directory_Controller
children=directory power_state requestToDir requestToMemory responseFromDir responseFromMemory responseToDir
addr_ranges=0:536870912:2:1048640:2097280
buffer_size=0
clk_domain=system.ruby.clk_domain
cluster_id=0
directory=system.ruby.dir_cntrl2.directory
directory_latency=6
downstream_destinations=
eventq_index=0
mandatory_queue_latency=1
number_of_TBEs=256
power_model=
power_state=system.ruby.dir_cntrl2.power_state
recycle_latency=10
requestToDir=system.ruby.dir_cntrl2.requestToDir
requestToMemory=system.ruby.dir_cntrl2.requestToMemory
responseFromDir=system.ruby.dir_cntrl2.responseFromDir
responseFromMemory=system.ruby.dir_cntrl2.responseFromMemory
responseToDir=system.ruby.dir_cntrl2.responseToDir
ruby_system=system.ruby
system=system
to_mem_ctrl_latency=1
transitions_per_cycle=32
version=2
memory_out_port=system.mem_ctrls2.port

[system.ruby.dir_cntrl2.directory]
type=RubyDirectoryMemory
addr_ranges=0:536870912:2:1048640:2097280
eventq_index=0

[system.ruby.dir_cntrl2.power_state]
type=PowerState
clk_gate_bins=20
clk_gate_max=2000000000
clk_gate_min=2
default_state=UNDEFINED
eventq_index=0
leaders=
possible_states=

[system.ruby.dir_cntrl2.requestToDir]
type=MessageBuffer
allow_zero_latency=false
buffer_size=0
eventq_index=0
ordered=false
randomization=ruby_system
in_port=system.ruby.network.out_port[15]

[system.ruby.dir_cntrl2.requestToMemory]
type=MessageBuffer
allow_zero_latency=false
buffer_size=0
eventq_index=0
ordered=false
randomization=ruby_system

[system.ruby.dir_cntrl2.responseFromDir]
type=MessageBuffer
allow_zero_latency=false
buffer_size=0
eventq_index=0
ordered=false
randomization=ruby_system
out_port=system.ruby.network.in_port[17]

[system.ruby.dir_cntrl2.responseFromMemory]
type=MessageBuffer
allow_zero_latency=false
buffer_size=0
eventq_index=0
ordered=false
randomization=ruby_system

[system.ruby.dir_cntrl2.responseToDir]
type=MessageBuffer
allow_zero_latency=false
buffer_size=0
eventq_index=0
ordered=false
randomization=ruby_system
in_port=system.ruby.network.out_port[16]

[system.ruby.dir_cntrl3]
type=Directory_Controller
children=directory power_state requestToDir requestToMemory responseFromDir responseFromMemory responseToDir
addr_ranges=0:536870912:3:1048640:2097280
buffer_size=0
clk_domain=system.ruby.clk_domain
cluster_id=0
directory=system.ruby.dir_cntrl3.directory
directory_latency=6
downstream_destinations=
eventq_index=0
mandatory_queue_latency=1
number_of_TBEs=256
power_model=
power_state=system.ruby.dir_cntrl3.power_state
recycle_latency=10
requestToDir=system.ruby.dir_cntrl3.requestToDir
requestToMemory=system.ruby.dir_cntrl3.requestToMemory
responseFromDir=system.ruby.dir_cntrl3.responseFromDir
responseFromMemory=system.ruby.dir_cntrl3.responseFromMemory
responseToDir=system.ruby.dir_cntrl3.responseToDir
ruby_system=system.ruby
system=system
to_mem_ctrl_latency=1
transitions_per_cycle=32
version=3
memory_out_port=system.mem_ctrls3.port

[system.ruby.dir_cntrl3.directory]
type=RubyDirectoryMemory
addr_ranges=0:536870912:3:1048640:2097280
eventq_index=0

[system.ruby.dir_cntrl3.power_state]
type=PowerState
clk_gate_bins=20
clk_gate_max=2000000000
clk_gate_min=2
default_state=UNDEFINED
eventq_index=0
leaders=
possible_states=

[system.ruby.dir_cntrl3.requestToDir]
type=MessageBuffer
allow_zero_latency=false
buffer_size=0
eventq_index=0
ordered=false
randomization=ruby_system
in_port=system.ruby.network.out_port[17]

[system.ruby.dir_cntrl3.requestToMemory]
type=MessageBuffer
allow_zero_latency=false
buffer_size=0
eventq_index=0
ordered=false
randomization=ruby_system

[system.ruby.dir_cntrl3.responseFromDir]
type=MessageBuffer
allow_zero_latency=false
buffer_size=0
eventq_index=0
ordered=false
randomization=ruby_system
out_port=system.ruby.network.in_port[18]

[system.ruby.dir_cntrl3.responseFromMemory]
type=MessageBuffer
allow_zero_latency=false
buffer_size=0
eventq_index=0
ordered=false
randomization=ruby_system

[system.ruby.dir_cntrl3.responseToDir]
type=MessageBuffer
allow_zero_latency=false
buffer_size=0
eventq_index=0
ordered=false
randomization=ruby_system
in_port=system.ruby.network.out_port[18]

[system.ruby.l1_cntrl0]
type=L1Cache_Controller
children=L1Dcache L1Icache mandatoryQueue optionalQueue power_state prefetcher requestFromL1Cache requestToL1Cache responseFromL1Cache responseToL1Cache sequencer unblockFromL1Cache
L1Dcache=system.ruby.l1_cntrl0.L1Dcache
L1Icache=system.ruby.l1_cntrl0.L1Icache
addr_ranges=0:18446744073709551615
buffer_size=0
clk_domain=system.ruby.clk_domain
cluster_id=0
downstream_destinations=
enable_prefetch=false
eventq_index=0
l1_request_latency=2
l1_response_latency=2
l2_select_num_bits=0
mandatoryQueue=system.ruby.l1_cntrl0.mandatoryQueue
mandatory_queue_latency=1
number_of_TBEs=256
optionalQueue=system.ruby.l1_cntrl0.optionalQueue
power_model=
power_state=system.ruby.l1_cntrl0.power_state
prefetcher=system.ruby.l1_cntrl0.prefetcher
recycle_latency=10
requestFromL1Cache=system.ruby.l1_cntrl0.requestFromL1Cache
requestToL1Cache=system.ruby.l1_cntrl0.requestToL1Cache
responseFromL1Cache=system.ruby.l1_cntrl0.responseFromL1Cache
responseToL1Cache=system.ruby.l1_cntrl0.responseToL1Cache
ruby_system=system.ruby
send_evictions=true
sequencer=system.ruby.l1_cntrl0.sequencer
system=system
to_l2_latency=1
transitions_per_cycle=4
unblockFromL1Cache=system.ruby.l1_cntrl0.unblockFromL1Cache
version=0

[system.ruby.l1_cntrl0.L1Dcache]
type=RubyCache
children=replacement_policy
assoc=8
block_size=0
dataAccessLatency=1
dataArrayBanks=1
eventq_index=0
is_icache=false
replacement_policy=system.ruby.l1_cntrl0.L1Dcache.replacement_policy
resourceStalls=false
ruby_system=system.ruby
size=65536
start_index_bit=6
tagAccessLatency=1
tagArrayBanks=1

[system.ruby.l1_cntrl0.L1Dcache.replacement_policy]
type=TreePLRURP
eventq_index=0
num_leaves=8

[system.ruby.l1_cntrl0.L1Icache]
type=RubyCache
children=replacement_policy
assoc=4
block_size=0
dataAccessLatency=1
dataArrayBanks=1
eventq_index=0
is_icache=true
replacement_policy=system.ruby.l1_cntrl0.L1Icache.replacement_policy
resourceStalls=false
ruby_system=system.ruby
size=32768
start_index_bit=6
tagAccessLatency=1
tagArrayBanks=1

[system.ruby.l1_cntrl0.L1Icache.replacement_policy]
type=TreePLRURP
eventq_index=0
num_leaves=4

[system.ruby.l1_cntrl0.mandatoryQueue]
type=MessageBuffer
allow_zero_latency=false
buffer_size=0
eventq_index=0
ordered=false
randomization=ruby_system

[system.ruby.l1_cntrl0.optionalQueue]
type=MessageBuffer
allow_zero_latency=false
buffer_size=0
eventq_index=0
ordered=false
randomization=ruby_system

[system.ruby.l1_cntrl0.power_state]
type=PowerState
clk_gate_bins=20
clk_gate_max=2000000000
clk_gate_min=2
default_state=UNDEFINED
eventq_index=0
leaders=
possible_states=

[system.ruby.l1_cntrl0.prefetcher]
type=RubyPrefetcher
cross_page=false
eventq_index=0
nonunit_filter=8
num_startup_pfs=1
num_streams=4
sys=system
train_misses=4
unit_filter=8

[system.ruby.l1_cntrl0.requestFromL1Cache]
type=MessageBuffer
allow_zero_latency=false
buffer_size=0
eventq_index=0
ordered=false
randomization=ruby_system
out_port=system.ruby.network.in_port[0]

[system.ruby.l1_cntrl0.requestToL1Cache]
type=MessageBuffer
allow_zero_latency=false
buffer_size=0
eventq_index=0
ordered=false
randomization=ruby_system
in_port=system.ruby.network.out_port[0]

[system.ruby.l1_cntrl0.responseFromL1Cache]
type=MessageBuffer
allow_zero_latency=false
buffer_size=0
eventq_index=0
ordered=false
randomization=ruby_system
out_port=system.ruby.network.in_port[1]

[system.ruby.l1_cntrl0.responseToL1Cache]
type=MessageBuffer
allow_zero_latency=false
buffer_size=0
eventq_index=0
ordered=false
randomization=ruby_system
in_port=system.ruby.network.out_port[1]

[system.ruby.l1_cntrl0.sequencer]
type=RubySequencer
children=power_state
clk_domain=system.ruby.clk_domain
coreid=99
dcache=system.ruby.l1_cntrl0.L1Dcache
deadlock_threshold=500000
eventq_index=0
garnet_standalone=false
is_cpu_sequencer=true
max_outstanding_requests=16
no_retry_on_stall=true
power_model=
power_state=system.ruby.l1_cntrl0.sequencer.power_state
ruby_system=system.ruby
support_data_reqs=true
support_inst_reqs=true
system=system
using_ruby_tester=true
version=0
in_ports=system.cpu.cpuInstDataPort[0]

[system.ruby.l1_cntrl0.sequencer.power_state]
type=PowerState
clk_gate_bins=20
clk_gate_max=2000000000
clk_gate_min=2
default_state=UNDEFINED
eventq_index=0
leaders=
possible_states=

[system.ruby.l1_cntrl0.unblockFromL1Cache]
type=MessageBuffer
allow_zero_latency=false
buffer_size=0
eventq_index=0
ordered=false
randomization=ruby_system
out_port=system.ruby.network.in_port[2]

[system.ruby.l1_cntrl1]
type=L1Cache_Controller
children=L1Dcache L1Icache mandatoryQueue optionalQueue power_state prefetcher requestFromL1Cache requestToL1Cache responseFromL1Cache responseToL1Cache sequencer unblockFromL1Cache
L1Dcache=system.ruby.l1_cntrl1.L1Dcache
L1Icache=system.ruby.l1_cntrl1.L1Icache
addr_ranges=0:18446744073709551615
buffer_size=0
clk_domain=system.ruby.clk_domain
cluster_id=0
downstream_destinations=
enable_prefetch=false
eventq_index=0
l1_request_latency=2
l1_response_latency=2
l2_select_num_bits=0
mandatoryQueue=system.ruby.l1_cntrl1.mandatoryQueue
mandatory_queue_latency=1
number_of_TBEs=256
optionalQueue=system.ruby.l1_cntrl1.optionalQueue
power_model=
power_state=system.ruby.l1_cntrl1.power_state
prefetcher=system.ruby.l1_cntrl1.prefetcher
recycle_latency=10
requestFromL1Cache=system.ruby.l1_cntrl1.requestFromL1Cache
requestToL1Cache=system.ruby.l1_cntrl1.requestToL1Cache
responseFromL1Cache=system.ruby.l1_cntrl1.responseFromL1Cache
responseToL1Cache=system.ruby.l1_cntrl1.responseToL1Cache
ruby_system=system.ruby
send_evictions=true
sequencer=system.ruby.l1_cntrl1.sequencer
system=system
to_l2_latency=1
transitions_per_cycle=4
unblockFromL1Cache=system.ruby.l1_cntrl1.unblockFromL1Cache
version=1

[system.ruby.l1_cntrl1.L1Dcache]
type=RubyCache
children=replacement_policy
assoc=8
block_size=0
dataAccessLatency=1
dataArrayBanks=1
eventq_index=0
is_icache=false
replacement_policy=system.ruby.l1_cntrl1.L1Dcache.replacement_policy
resourceStalls=false
ruby_system=system.ruby
size=65536
start_index_bit=6
tagAccessLatency=1
tagArrayBanks=1

[system.ruby.l1_cntrl1.L1Dcache.replacement_policy]
type=TreePLRURP
eventq_index=0
num_leaves=8

[system.ruby.l1_cntrl1.L1Icache]
type=RubyCache
children=replacement_policy
assoc=4
block_size=0
dataAccessLatency=1
dataArrayBanks=1
eventq_index=0
is_icache=true
replacement_policy=system.ruby.l1_cntrl1.L1Icache.replacement_policy
resourceStalls=false
ruby_system=system.ruby
size=32768
start_index_bit=6
tagAccessLatency=1
tagArrayBanks=1

[system.ruby.l1_cntrl1.L1Icache.replacement_policy]
type=TreePLRURP
eventq_index=0
num_leaves=4

[system.ruby.l1_cntrl1.mandatoryQueue]
type=MessageBuffer
allow_zero_latency=false
buffer_size=0
eventq_index=0
ordered=false
randomization=ruby_system

[system.ruby.l1_cntrl1.optionalQueue]
type=MessageBuffer
allow_zero_latency=false
buffer_size=0
eventq_index=0
ordered=false
randomization=ruby_system

[system.ruby.l1_cntrl1.power_state]
type=PowerState
clk_gate_bins=20
clk_gate_max=2000000000
clk_gate_min=2
default_state=UNDEFINED
eventq_index=0
leaders=
possible_states=

[system.ruby.l1_cntrl1.prefetcher]
type=RubyPrefetcher
cross_page=false
eventq_index=0
nonunit_filter=8
num_startup_pfs=1
num_streams=4
sys=system
train_misses=4
unit_filter=8

[system.ruby.l1_cntrl1.requestFromL1Cache]
type=MessageBuffer
allow_zero_latency=false
buffer_size=0
eventq_index=0
ordered=false
randomization=ruby_system
out_port=system.ruby.network.in_port[3]

[system.ruby.l1_cntrl1.requestToL1Cache]
type=MessageBuffer
allow_zero_latency=false
buffer_size=0
eventq_index=0
ordered=false
randomization=ruby_system
in_port=system.ruby.network.out_port[2]

[system.ruby.l1_cntrl1.responseFromL1Cache]
type=MessageBuffer
allow_zero_latency=false
buffer_size=0
eventq_index=0
ordered=false
randomization=ruby_system
out_port=system.ruby.network.in_port[4]

[system.ruby.l1_cntrl1.responseToL1Cache]
type=MessageBuffer
allow_zero_latency=false
buffer_size=0
eventq_index=0
ordered=false
randomization=ruby_system
in_port=system.ruby.network.out_port[3]

[system.ruby.l1_cntrl1.sequencer]
type=RubySequencer
children=power_state
clk_domain=system.ruby.clk_domain
coreid=99
dcache=system.ruby.l1_cntrl1.L1Dcache
deadlock_threshold=500000
eventq_index=0
garnet_standalone=false
is_cpu_sequencer=true
max_outstanding_requests=16
no_retry_on_stall=true
power_model=
power_state=system.ruby.l1_cntrl1.sequencer.power_state
ruby_system=system.ruby
support_data_reqs=true
support_inst_reqs=true
system=system
using_ruby_tester=true
version=1
in_ports=system.cpu.cpuInstDataPort[1]

[system.ruby.l1_cntrl1.sequencer.power_state]
type=PowerState
clk_gate_bins=20
clk_gate_max=2000000000
clk_gate_min=2
default_state=UNDEFINED
eventq_index=0
leaders=
possible_states=

[system.ruby.l1_cntrl1.unblockFromL1Cache]
type=MessageBuffer
allow_zero_latency=false
buffer_size=0
eventq_index=0
ordered=false
randomization=ruby_system
out_port=system.ruby.network.in_port[5]

[system.ruby.l1_cntrl2]
type=L1Cache_Controller
children=L1Dcache L1Icache mandatoryQueue optionalQueue power_state prefetcher requestFromL1Cache requestToL1Cache responseFromL1Cache responseToL1Cache sequencer unblockFromL1Cache
L1Dcache=system.ruby.l1_cntrl2.L1Dcache
L1Icache=system.ruby.l1_cntrl2.L1Icache
addr_ranges=0:18446744073709551615
buffer_size=0
clk_domain=system.ruby.clk_domain
cluster_id=0
downstream_destinations=
enable_prefetch=false
eventq_index=0
l1_request_latency=2
l1_response_latency=2
l2_select_num_bits=0
mandatoryQueue=system.ruby.l1_cntrl2.mandatoryQueue
mandatory_queue_latency=1
number_of_TBEs=256
optionalQueue=system.ruby.l1_cntrl2.optionalQueue
power_model=
power_state=system.ruby.l1_cntrl2.power_state
prefetcher=system.ruby.l1_cntrl2.prefetcher
recycle_latency=10
requestFromL1Cache=system.ruby.l1_cntrl2.requestFromL1Cache
requestToL1Cache=system.ruby.l1_cntrl2.requestToL1Cache
responseFromL1Cache=system.ruby.l1_cntrl2.responseFromL1Cache
responseToL1Cache=system.ruby.l1_cntrl2.responseToL1Cache
ruby_system=system.ruby
send_evictions=true
sequencer=system.ruby.l1_cntrl2.sequencer
system=system
to_l2_latency=1
transitions_per_cycle=4
unblockFromL1Cache=system.ruby.l1_cntrl2.unblockFromL1Cache
version=2

[system.ruby.l1_cntrl2.L1Dcache]
type=RubyCache